20
Lattice="8.470322934296973 -4.27581900990956e-05 4.956025556958987e-09 -4.565484489166866e-05 9.058647552701915 -1.552154881697004e-07 7.402852072725718e-09 -2.1414661690965494e-07 12.541585108677497" Properties=species:S:1:pos:R:3 pbc="T T T"
Cs       3.95800969       0.71594031       9.40618877
Cs       4.51226250       8.34266360       3.13539629
Cs       0.27713692       5.24525089       9.40618869
Cs       8.19314535       3.81335112       3.13539637
Pb       4.23512434       4.52930022       6.27077917
Pb       4.23512095       4.52930107       0.00001233
Pb       0.00001359       0.00000830       0.00000585
Pb       0.00001021       0.00000746       6.27078580
I        6.87902526       6.29975601       0.44269669
I        0.62562449       0.03937719       3.13539588
I        7.84464725       9.01922633       9.40618920
I        2.64378288       7.28820651       6.71347500
I        5.82649343       1.77039693       0.44268121
I        1.59125568       2.75884525      12.09888890
I        6.87902433       6.29975569       5.82809593
I        5.82649429       1.77039672       5.82811157
I        2.64378289       7.28820556      12.09890283
I        3.60951808       4.56871159       3.13539587
I        1.59125573       2.75884627       6.71348908
I        4.86076774       4.48989424       9.40618922
